
     RDKit          3D

 55 58  0  0  0  0  0  0  0  0999 V2000
   -1.2869   -4.9262    0.7673 C   0  0  0  0  0  0  0  0  0  0  0  0
   -1.1144   -3.5141    0.7073 O   0  0  0  0  0  0  0  0  0  0  0  0
    0.1260   -2.8597    0.7754 C   0  0  0  0  0  0  0  0  0  0  0  0
    1.3355   -3.5652    0.9116 C   0  0  0  0  0  0  0  0  0  0  0  0
    2.5515   -2.8803    0.9776 C   0  0  0  0  0  0  0  0  0  0  0  0
    3.7111   -3.5779    1.0902 N   0  0  0  0  0  0  0  0  0  0  0  0
    4.9070   -2.9419    1.1499 C   0  0  0  0  0  0  0  0  0  0  0  0
    4.9603   -1.5871    1.1067 N   0  0  0  0  0  0  0  0  0  0  0  0
    3.8350   -0.8298    0.9920 C   0  0  0  0  0  0  0  0  0  0  0  0
    3.9493    0.6038    1.0067 N   0  0  0  0  0  0  0  0  0  0  0  0
    5.0767    1.3126    0.4633 C   0  0  0  0  0  0  0  0  0  0  0  0
    5.4124    2.5748    0.9774 C   0  0  0  0  0  0  0  0  0  0  0  0
    6.4920    3.2895    0.4507 C   0  0  0  0  0  0  0  0  0  0  0  0
    7.2394    2.7571   -0.6031 C   0  0  0  0  0  0  0  0  0  0  0  0
    8.2842    3.4601   -1.1076 F   0  0  0  0  0  0  0  0  0  0  0  0
    6.9021    1.5077   -1.1375 C   0  0  0  0  0  0  0  0  0  0  0  0
    7.8221    0.8377   -2.4744 Cl  0  0  0  0  0  0  0  0  0  0  0  0
    5.8215    0.7906   -0.6110 C   0  0  0  0  0  0  0  0  0  0  0  0
    2.5780   -1.4707    0.9200 C   0  0  0  0  0  0  0  0  0  0  0  0
    1.3690   -0.7678    0.7665 C   0  0  0  0  0  0  0  0  0  0  0  0
    0.1431   -1.4590    0.6987 C   0  0  0  0  0  0  0  0  0  0  0  0
   -1.0823   -0.7900    0.5519 O   0  0  0  0  0  0  0  0  0  0  0  0
   -1.2293    0.6246    0.4456 C   0  0  0  0  0  0  0  0  0  0  0  0
   -2.7075    0.9860    0.2992 C   0  0  0  0  0  0  0  0  0  0  0  0
   -3.3042    0.4034   -1.0017 C   0  0  0  0  0  0  0  0  0  0  0  0
   -4.6899    0.8360   -1.2888 N   0  0  0  0  0  0  0  0  0  0  0  0
   -4.7801    2.2123   -1.8147 C   0  0  0  0  0  0  0  0  0  0  0  0
   -6.2511    2.6613   -1.9127 C   0  0  0  0  0  0  0  0  0  0  0  0
   -7.1145    1.5414   -1.9257 O   0  0  0  0  0  0  0  0  0  0  0  0
   -7.0741    0.8807   -0.6704 C   0  0  0  0  0  0  0  0  0  0  0  0
   -5.6336    0.6179   -0.1806 C   0  0  0  0  0  0  0  0  0  0  0  0
   -2.3680   -5.1626    0.6914 H   0  0  0  0  0  0  0  0  0  0  0  0
   -0.9046   -5.3170    1.7338 H   0  0  0  0  0  0  0  0  0  0  0  0
   -0.7568   -5.4119   -0.0791 H   0  0  0  0  0  0  0  0  0  0  0  0
    1.3421   -4.6460    0.9632 H   0  0  0  0  0  0  0  0  0  0  0  0
    5.8193   -3.5151    1.2395 H   0  0  0  0  0  0  0  0  0  0  0  0
    3.2455    1.1509    1.5516 H   0  0  0  0  0  0  0  0  0  0  0  0
    4.8413    3.0010    1.7927 H   0  0  0  0  0  0  0  0  0  0  0  0
    6.7475    4.2586    0.8598 H   0  0  0  0  0  0  0  0  0  0  0  0
    5.5549   -0.1604   -1.0534 H   0  0  0  0  0  0  0  0  0  0  0  0
    1.3748    0.3081    0.6835 H   0  0  0  0  0  0  0  0  0  0  0  0
   -0.6626    1.0011   -0.4340 H   0  0  0  0  0  0  0  0  0  0  0  0
   -0.8325    1.1077    1.3649 H   0  0  0  0  0  0  0  0  0  0  0  0
   -2.7938    2.0912    0.3089 H   0  0  0  0  0  0  0  0  0  0  0  0
   -3.2508    0.5859    1.1817 H   0  0  0  0  0  0  0  0  0  0  0  0
   -2.6514    0.6726   -1.8617 H   0  0  0  0  0  0  0  0  0  0  0  0
   -3.2907   -0.7063   -0.9363 H   0  0  0  0  0  0  0  0  0  0  0  0
   -4.2288    2.9322   -1.1745 H   0  0  0  0  0  0  0  0  0  0  0  0
   -4.3271    2.2372   -2.8297 H   0  0  0  0  0  0  0  0  0  0  0  0
   -6.5068    3.3451   -1.0703 H   0  0  0  0  0  0  0  0  0  0  0  0
   -6.3988    3.2375   -2.8506 H   0  0  0  0  0  0  0  0  0  0  0  0
   -7.5974   -0.0927   -0.7816 H   0  0  0  0  0  0  0  0  0  0  0  0
   -7.6396    1.4675    0.0874 H   0  0  0  0  0  0  0  0  0  0  0  0
   -5.4119    1.3138    0.6592 H   0  0  0  0  0  0  0  0  0  0  0  0
   -5.5524   -0.4261    0.1951 H   0  0  0  0  0  0  0  0  0  0  0  0
  1  2  1  0
  2  3  1  0
  3  4  2  0
  4  5  1  0
  5  6  2  0
  6  7  1  0
  7  8  2  0
  8  9  1  0
  9 10  1  0
 10 11  1  0
 11 12  2  0
 12 13  1  0
 13 14  2  0
 14 15  1  0
 14 16  1  0
 16 17  1  0
 16 18  2  0
  9 19  2  0
 19 20  1  0
 20 21  2  0
 21 22  1  0
 22 23  1  0
 23 24  1  0
 24 25  1  0
 25 26  1  0
 26 27  1  0
 27 28  1  0
 28 29  1  0
 29 30  1  0
 30 31  1  0
 21  3  1  0
 31 26  1  0
 19  5  1  0
 18 11  1  0
  1 32  1  0
  1 33  1  0
  1 34  1  0
  4 35  1  0
  7 36  1  0
 10 37  1  0
 12 38  1  0
 13 39  1  0
 18 40  1  0
 20 41  1  0
 23 42  1  0
 23 43  1  0
 24 44  1  0
 24 45  1  0
 25 46  1  0
 25 47  1  0
 27 48  1  0
 27 49  1  0
 28 50  1  0
 28 51  1  0
 30 52  1  0
 30 53  1  0
 31 54  1  0
 31 55  1  0
M  END
$$$$
